8500 nodes with solar unbalanced/Master-PV2MW-inv.dss
// Master file for 8500-Node IEEE Test Feeder Case
// UNBALANCED Load Case + 2 MW PV (PV1=MPPT, PV2=VoltVar Q=+/-0.44)

Clear

New Circuit.IEEE8500u

! Make the source stiff with small impedance
~ pu=1.05  r1=0  x1=0.001  r0=0  x0=0.001

Redirect  LineCodes2.dss
Redirect  Triplex_Linecodes.dss

Redirect  Lines.dss
Redirect  Transformers.dss
//Redirect  LoadXfmrs.dss    ! Load Transformers
Redirect  LoadXfmrCodes.dss  ! Referencing XfmrCodes
Redirect  Triplex_Lines.dss
Redirect  UnbalancedLoads.DSS   ! UNBALANCED 2354 single-phase loads
Redirect  Capacitors.dss
Redirect  CapControls.dss
Redirect  Regulators.dss
Redirect  PV_preinstalled_2MW_inv.dss   ! 2 MW PV with VoltVar

! Let DSS estimate the voltage bases
Set voltagebases=[115, 12.47,  0.48, 0.208]
Calcvoltagebases     ! This also establishes the bus list

! Load in bus coordintes now that bus list is established
Buscoords  Buscoords.dss
