8500 nodes with solar unbalanced/Lines.dss
! Primary circuit line definitions
! Most lines pick up their impedance and phase definition from the Linecodes.DSS file

New Line.HVMV_Sub_connector  bus1=_HVMV_Sub_LSB       bus2=HVMV_Sub_48332      length=0.001       units=km r1=0.001                                        r0=0.001 x1=0.01      x0=0.01      c1=0     c0=0           
New Line.LN5502549-1         bus1=M1009763.2          bus2=L2673322.2          length=0.032175613 units=km Linecode=1PH-x4_ACSRx4_ACSR                
New Line.LN6259988-1         bus1=M1069148.3          bus2=L2673309.3          length=0.10723408  units=km Linecode=1PH-xx4_ACSR4_ACSR                
New Line.LN6077796-1         bus1=M1069588.2          bus2=L2804270.2          length=0.011446341 units=km Linecode=1PH-x4_ACSRx4_ACSR                
New Line.LN5835135-2         bus1=M3036164.2          bus2=L2935553.2          length=0.047751634 units=km Linecode=1PH-x4_ACSRx4_ACSR                
New Line.LN5896826-1         bus1=M1209749.2          bus2=L2748840.2          length=0.20318135  units=km Linecode=1PH-x2_ACSRx2_ACSR                
New Line.LN5714038-1         bus1=M1108264.2          bus2=M1108263.2          length=0.099994301 units=km Linecode=1PH-x4_ACSRx4_WPAL                
New Line.LN5653457-1         bus1=L3085398            bus2=M1026891            length=0.085708298 units=km Linecode=3PH_H-4_ACSR4_ACSR4_ACSR4_ACSR          
New Line.LN5835173-1         bus1=L3216367            bus2=M1069468            length=0.04134682  units=km Linecode=3PH_H-2/0_ACSR2/0_ACSR2/0_ACSR2_ACSR    
New Line.LN6321415-1         bus1=M1142800.2          bus2=M1142799.2          length=0.093302869 units=km Linecode=1PH-x2_ACSRx2_ACSR                
New Line.LN5565092-1         bus1=M1047592.3          bus2=P827512.3           length=0.003656151 units=km Linecode=1PH-xx4_ACSR4_ACSR                
New Line.LN6073648-1         bus1=M1047339.1          bus2=P895104.1           length=0.007739728 units=km Linecode=1PH-4_WPALxx2_WPAL                
New Line.LN5774457-1         bus1=M1026915            bus2=M1026920            length=0.04084655  units=km Linecode=3PH_H-4_ACSR2_ACSR2_ACSR4_WPAL          
New Line.LN5534966-3         bus1=N1138596.1          bus2=L3254207.1          length=0.024491351 units=km Linecode=1PH-4_ACSRxx4_ACSR                
New Line.LN5859996-1         bus1=M1069464.2          bus2=P873787.2           length=0.006235546 units=km Linecode=1PH-x2_ACSRx2_ACSR                
New Line.LN6138610-2         bus1=N1144665            bus2=M1047515            length=0.02738852  units=km Linecode=3PH_H-4_ACSR4_ACSR4_ACSR4_WPAL          
New Line.LN6258435-3         bus1=N1137002.1          bus2=M1047707.1          length=0.092480965 units=km Linecode=1PH-2_ACSRxx2_ACSR                
New Line.LN5804790-1         bus1=L2729406.3          bus2=L2897768.3          length=0.19477261  units=km Linecode=1PH-xx4_ACSR4_ACSR                
New Line.LN6900591-14        bus1=L3649301.1          bus2=L3649302.1          length=0.063060497 units=km Linecode=1PH-2_ACSRxx2_ACSR                
New Line.LN6409873-1         bus1=L2970842.2          bus2=M1089113.2          length=0.071877523 units=km Linecode=1PH-x4_ACSRx4_ACSR                
New Line.LN6014135-1         bus1=M1047312.1          bus2=P893163.1           length=0.004144648 units=km Linecode=1PH-4_WPALxx4_ACSR                
New Line.LN6077784-1         bus1=L2822871            bus2=M1026872            length=0.060144485 units=km Linecode=3PH_H-2/0_ACSR2/0_ACSR2/0_ACSR2_ACSR    
New Line.LN5744338-1         bus1=M1026312.2          bus2=L2973163.2          length=0.053487035 units=km Linecode=1PH-x4_ACSRx4_WPAL                
New Line.LN6991381-4         bus1=L3728038.1          bus2=L3728039.1          length=0.079108815 units=km Linecode=1PH-2_ACSRxx2_ACSR                
New Line.LN5774480-1         bus1=M1069567.2          bus2=M1069582.2          length=0.1529554   units=km Linecode=1PH-x4_ACSRx4_ACSR                
New Line.LN5986938-3         bus1=N1140830.1          bus2=L3216351.1          length=0.00873965  units=km Linecode=1PH-4_ACSRxx4_ACSR                
New Line.LN5894230-1         bus1=L2952007.3          bus2=L2861158.3          length=0.12654648  units=km Linecode=1PH-xx4_ACSR4_ACSR                
New Line.LN5683858-3         bus1=N1140827            bus2=M1026726            length=0.017268995 units=km Linecode=3PH_H-4_ACSR4_ACSR4_ACSR4_ACSR          
New Line.LN5920279-5         bus1=L2730106            bus2=N1142099            length=0.022369032 units=km Linecode=3PH_H-397_ACSR397_ACSR397_ACSR2/0_ACSR  
New Line.LN6439600-1         bus1=M1026658.1          bus2=L3172805.1          length=0.10668036  units=km Linecode=1PH-2_ACSRxx2_ACSR                
New Line.LN5589097-1         bus1=P895112.1           bus2=L3048962.1          length=0.025604159 units=km Linecode=1PH-2_ACSRxx4_ACSR                
New Line.LN5651975-1         bus1=L2991914            bus2=M1047503            length=0.035650057 units=km Linecode=3PH_H-4_ACSR4_ACSR4_ACSR4_ACSR          
New Line.LN5865236-1         bus1=M1047751.1          bus2=L2973154.1          length=0.00930772  units=km Linecode=1PH-4_ACSRxx4_ACSR                
New Line.LN5593232-1         bus1=L3010565.3          bus2=L2897775.3          length=0.14082596  units=km Linecode=1PH-xx2_ACSR2_ACSR                
New Line.LN5740283-1         bus1=M1125955.3          bus2=M1125957.3          length=0.00682612  units=km Linecode=1PH-xx4_WPAL4_WPAL                
New Line.LN6106559-1         bus1=M1069640.2          bus2=L2804269.2          length=0.10114503  units=km Linecode=1PH-x4_ACSRx4_ACSR                
New Line.LN5714056-3         bus1=M1026702            bus2=N1139551            length=0.12873466  units=km Linecode=3PH_H-4_ACSR4_ACSR4_ACSR4_WPAL          
New Line.LN5985355-3         bus1=N1136355.2          bus2=L2783231.2          length=0.072454801 units=km Linecode=1PH-x4_WPALx4_WPAL                
New Line.LN5531956-1         bus1=L2748143.1          bus2=L3251854.1          length=0.067056078 units=km Linecode=1PH-2_ACSRxx2_ACSR                
New Line.LN5650048-1         bus1=M1069610.2          bus2=M1069600.2          length=0.060959705 units=km Linecode=1PH-x2_ACSRx2_ACSR                
New Line.LN6290203-1         bus1=M1069424            bus2=L2935549            length=0.088596305 units=km Linecode=3PH_H-2/0_ACSR2/0_ACSR2/0_ACSR2_ACSR    
New Line.LN6134414-1         bus1=P895089.3           bus2=L3235242.3          length=0.060507038 units=km Linecode=1PH-xx2_ACSR2_ACSR                
New Line.LN6259998-2         bus1=M1026795.3          bus2=N1140522.3          length=0.013557509 units=km Linecode=1PH-xx2_ACSR2_ACSR                
New Line.LN6078767-1         bus1=L3030199            bus2=M1125934            length=0.029294768 units=km Linecode=3PH_H-397_ACSR397_ACSR397_ACSR2/0_ACSR  
New Line.LN6017300-1         bus1=M1069189.3          bus2=L2860487.3          length=0.086987129 units=km Linecode=1PH-xx4_WPAL4_WPAL                
New Line.LN8979257-2         bus1=221-312488          bus2=M1089183            length=0.013516796 units=km linecode=3P_1/0_AXNJ_DB                          
New Line.LN81048109-1        bus1=M1108464.2          bus2=L3102286.2          length=0.10745557  units=km linecode=1P_1/0_AXNJ_DB                          
New Line.293471              bus1=F739845             bus2=293471              length=0.03048     units=km Linecode=3PH_H-4_ACSR4_ACSR4_ACSR4_ACSR          
New Line.LN5534965-2         bus1=P827499.1           bus2=N1139254.1          length=0.006376053 units=km Linecode=1PH-4_ACSRxx4_ACSR                
New Line.LN5655683-1         bus1=M1026657.1          bus2=M1026656.1          length=0.006010467 units=km Linecode=1PH-4_ACSRxx4_ACSR                
New Line.LN5686247-1         bus1=M1108299.2          bus2=M1108300.2          length=0.006796901 units=km Linecode=1PH-x4_ACSRx4_ACSR                
New Line.LN6048642-1         bus1=L3198355.2          bus2=L2805037.2          length=0.11081571  units=km Linecode=1PH-x4_WPALx4_WPAL                
New Line.LN5928544-3         bus1=N1137994.3          bus2=M1069484.3          length=0.05637094  units=km Linecode=1PH-xx4_WPAL4_ACSR                
New Line.LN6108172-1         bus1=L2860504.1          bus2=L2860493.1          length=0.20838125  units=km Linecode=1PH-2_ACSRxx2_ACSR                
New Line.LN5532754-1         bus1=M1026783            bus2=M1026780            length=0.017916335 units=km Linecode=3PH_H-4_ACSR4_ACSR4_ACSR4_WPAL          
New Line.LN5591834-1         bus1=P895111.3           bus2=L2895496.3          length=0.069855343 units=km Linecode=1PH-xx2_ACSR2_ACSR                
New Line.LN6347196-2         bus1=N1140819            bus2=M1026700            length=0.026930613 units=km Linecode=3PH_H-4_ACSR4_ACSR4_ACSR4_WPAL          
New Line.LN5532741-1         bus1=M1089173.3          bus2=L2935551.3          length=0.060857652 units=km Linecode=1PH-xx4_WPAL4_WPAL                
New Line.LN5804803-1         bus1=M1026344.1          bus2=M1026364.1          length=0.29464985  units=km Linecode=1PH-2_ACSRxx2_ACSR                
New Line.LN6169248-1         bus1=L2879070            bus2=L3216345            length=0.089300859 units=km Linecode=3PH_H-2/0_ACSR2/0_ACSR2/0_ACSR2_ACSR    
New Line.LN5532786-2         bus1=M1069428.2          bus2=N1139257.2          length=0.016476581 units=km Linecode=1PH-x2_ACSRx1/0_TPX               
New Line.LN5744339-1         bus1=L2991919.1          bus2=M1026361.1          length=0.085291161 units=km Linecode=1PH-4_WPALxx4_ACSR                
New Line.LN5531255-3         bus1=N1147857.1          bus2=M1009742.1          length=0.054752983 units=km Linecode=1PH-4_ACSRxx4_ACSR                
New Line.LN5926308-2         bus1=Q14412              bus2=M1047325            length=0.033944982 units=km Linecode=3PH_H-4_ACSR4_ACSR4_ACSR4_ACSR          
New Line.LN5683856-3         bus1=N1139263.1          bus2=L3048227.1          length=0.025986896 units=km Linecode=1PH-4_ACSRxx4_ACSR                
New Line.LN6171502-1         bus1=P827506.1           bus2=M1069469.1          length=0.007050168 units=km Linecode=1PH-4_ACSRxx4_ACSR                
New Line.LN5593228-1         bus1=M1027019.2          bus2=L2785522.2          length=0.060390635 units=km Linecode=1PH-x2_ACSRx2_ACSR                


New Line.LN6380800-1         bus1=L3216338.2          bus2=L2973146.2          length=0.058581136 units=km Linecode=1PH-x2_ACSRx2_ACSR                
New Line.LN6199525-2         bus1=M3037452.1          bus2=L2973164.1          length=0.071451786 units=km Linecode=1PH-4_ACSRxx4_ACSR                
New Line.LN5772710-2         bus1=L3120376.1          bus2=M1026925.1          length=0.089332548 units=km Linecode=1PH-4_ACSRxx4_WPAL                
New Line.LN8961760-1         bus1=M1047612.3          bus2=P828360.3           length=0.005371644 units=km linecode=1P_1/0_AXNJ_DB                          
New Line.LN6047556-1         bus1=M1089195.3          bus2=L3141393.3          length=0.11273397  units=km Linecode=1PH-xx2_ACSR2_ACSR                
New Line.LN6138603-1         bus1=M1026946.2          bus2=M1026940.2          length=0.12856984  units=km Linecode=1PH-x4_ACSRx4_ACSR                
New Line.LN6108139-1         bus1=M1047471.2          bus2=L3216349.2          length=0.0183997   units=km Linecode=1PH-x2_ACSRx2_ACSR                
New Line.LN6388581-2         bus1=M1047401.1          bus2=L2748132.1          length=0.056056234 units=km Linecode=1PH-4_ACSRxx4_ACSR                
New Line.LN5774460-1         bus1=L3122820.1          bus2=L3141398.1          length=0.059408725 units=km Linecode=1PH-2_ACSRxx2_ACSR                
New Line.LN5624387-1         bus1=M1108360.3          bus2=L3048968.3          length=0.05497669  units=km Linecode=1PH-xx4_ACSR4_ACSR                
New Line.LN6137087-1         bus1=L2801950.3          bus2=M1069224.3          length=0.032899004 units=km Linecode=1PH-xx4_ACSR1/0_TPX               
New Line.LN6077809-1         bus1=L2766746.3          bus2=M1027073.3          length=0.11047955  units=km Linecode=1PH-xx2_ACSR2_ACSR                
New Line.LN6440079-1         bus1=L2895496.3          bus2=M1142873.3          length=0.050561264 units=km Linecode=1PH-xx2_ACSR2_ACSR                
New Line.LN5804794-1         bus1=M1069181.1          bus2=L2973151.1          length=0.075432644 units=km Linecode=1PH-4_ACSRxx4_ACSR                
New Line.LN5654484-1         bus1=L3179682.3          bus2=L2786274.3          length=0.027728997 units=km Linecode=1PH-xx4_ACSR4_ACSR                
New Line.LN5774465-1         bus1=L3066816.1          bus2=M1026667.1          length=0.12146238  units=km Linecode=1PH-2_ACSRxx2_ACSR                
New Line.LN5473349-1         bus1=M1108529            bus2=M1108532            length=0.024808926 units=km Linecode=3PH_H-397_ACSR397_ACSR397_ACSR2/0_ACSR  
New Line.LN6169253-1         bus1=L2766723.1          bus2=L3122822.1          length=0.057158143 units=km Linecode=1PH-4_ACSRxx4_ACSR                
New Line.LN6350536-1         bus1=L2673312.1          bus2=L3235247.1          length=0.16625327  units=km Linecode=1PH-2_ACSRxx2_ACSR                
New Line.LN6048523-1         bus1=M1166391.3          bus2=L3254873.3          length=0.1061747   units=km Linecode=1PH-xx4_WPAL4_ACSR                
New Line.LN5594152-1         bus1=L2861157.3          bus2=P901951.3           length=0.12134881  units=km Linecode=1PH-xx2_ACSR2_ACSR                
New Line.LN5865248-1         bus1=M1047346            bus2=M1047345            length=0.043145742 units=km Linecode=3PH_H-4_WPAL4_WPAL4_WPAL4_ACSR          
New Line.LN6046143-1         bus1=L2989596.2          bus2=L2822873.2          length=0.088615313 units=km Linecode=1PH-x4_WPALx4_ACSR                
New Line.LN5803287-1         bus1=M1108328.3          bus2=L2875754.3          length=0.021267162 units=km Linecode=1PH-xx2_ACSR2_ACSR                
New Line.LN5589094-1         bus1=L2786204.3          bus2=M1209819.3          length=0.072043559 units=km Linecode=1PH-xx4_ACSR4_ACSR                
New Line.LN5954983-1         bus1=P901972.1           bus2=M1009726.1          length=0.090083252 units=km Linecode=1PH-4_WPALxx4_WPAL                
New Line.LN5924696-2         bus1=M1047702.1          bus2=N1137001.1          length=0.042663027 units=km Linecode=1PH-2_ACSRxx2_ACSR                
New Line.LN6506311-4         bus1=L2767340            bus2=M3037449            length=0.001937451 units=km Linecode=3PH_H-4_WPAL4_WPAL4_WPAL4_WPAL          
New Line.LN5653493-1         bus1=M1047457.2          bus2=L2710546.2          length=0.040119548 units=km Linecode=1PH-x2_ACSRx2_ACSR                
New Line.LN5684836-1         bus1=L2674027            bus2=L2692633            length=0.067881777 units=km Linecode=3PH_H-397_ACSR397_ACSR397_ACSR2/0_ACSR  
New Line.LN5715016-3         bus1=N1142108.1          bus2=L2674051.1          length=0.073678618 units=km Linecode=1PH-2_ACSRxx2_ACSR                
New Line.LN6138614-1         bus1=M1069135            bus2=R18242              length=0.070990263 units=km Linecode=3PH_H-4_WPAL4_WPAL4_WPAL4_WPAL          
New Line.LN6077781-2         bus1=M1047534            bus2=N1136663            length=0.11473566  units=km Linecode=3PH_H-2/0_ACSR2/0_ACSR2/0_ACSR2_ACSR    
New Line.LN5675121-1         bus1=M1108508.3          bus2=L3097861.3          length=0.091439774 units=km Linecode=1PH-xx2_ACSR2_ACSR                
New Line.LN5773046-1         bus1=M1069560.2          bus2=M1069567.2          length=0.081428218 units=km Linecode=1PH-x4_ACSRx4_ACSR                
New Line.LN6380809-2         bus1=L2973153            bus2=N1136998            length=0.010528536 units=km Linecode=3PH_H-4_WPAL4_WPAL4_WPAL4_WPAL          
New Line.LN6018326-1         bus1=L2898515.3          bus2=M1166387.3          length=0.059605868 units=km Linecode=1PH-xx4_ACSR4_ACSR                
New Line.LN5472356-1         bus1=M1047442.2          bus2=L3235250.2          length=0.064500287 units=km Linecode=1PH-x4_WPALx4_WPAL                
New Line.LN6139641-1         bus1=M1142871            bus2=M1142874            length=0.038152689 units=km Linecode=3PH_H-397_ACSR397_ACSR397_ACSR2/0_ACSR  
New Line.LN6018341-1         bus1=L2955081            bus2=M1108315            length=0.094684869 units=km Linecode=3PH_H-397_ACSR397_ACSR397_ACSR2/0_ACSR  
New Line.LN6017302-1         bus1=L2973162            bus2=M1026333            length=0.053150629 units=km Linecode=3PH_H-4_WPAL4_WPAL4_WPAL4_ACSR          
New Line.LN6199505-1         bus1=M1009832.2          bus2=L2860479.2          length=0.036046786 units=km Linecode=1PH-x4_ACSRx4_ACSR                
New Line.LN5682327-1         bus1=M1026854.1          bus2=P901894.1           length=0.005924616 units=km Linecode=1PH-4_ACSRxx4_ACSR                
New Line.LN6290243-1         bus1=M1026485.2          bus2=M1026492.2          length=0.065907247 units=km Linecode=1PH-x2_ACSRx2_ACSR                
New Line.X8223_48332_sw      bus1=D6413567-3_INT      bus2=E182724             switch=y           R1=1     1   1        1            Length=0.001   
New Line.LN6413567-3         bus1=N1139541            bus2=D6413567-3_INT      length=0.014966786 units=km Linecode=3PH_H-4_ACSR4_ACSR4_ACSR4_WPAL          
New Line.LN5591731-3         bus1=M4122658            bus2=L2933135            length=0.001669181 units=km Linecode=3PH_H-397_ACSR397_ACSR397_ACSR2/0_ACSR  
New Line.LN5653470-1         bus1=M1026702            bus2=L2729414            length=0.049898074 units=km Linecode=3PH_H-2_ACSR2_ACSR2_ACSR2_ACSR          
New Line.LN6017316-1         bus1=L2729430.2          bus2=L2766742.2          length=0.10864125  units=km Linecode=1PH-x4_ACSRx4_ACSR                
New Line.LN5926299-1         bus1=M1026972.2          bus2=L2860483.2          length=0.060677138 units=km Linecode=1PH-x2_ACSRx2_ACSR                
New Line.LN5683831-1         bus1=L2860490            bus2=L3104134            length=0.063357888 units=km Linecode=3PH_H-4_ACSR4_ACSR4_ACSR4_ACSR          
New Line.LN6352700-1         bus1=M1089144.1          bus2=P827522.1           length=0.002591741 units=km Linecode=1PH-2_ACSRxx2_ACSR                
New Line.LN6047570-1         bus1=M1089118.1          bus2=L3048208.1          length=0.045297024 units=km Linecode=1PH-4_ACSRxx4_WPAL                
New Line.LN5624342-1         bus1=M1108505            bus2=L2955047            length=0.05456149  units=km Linecode=3PH_H-397_ACSR397_ACSR397_ACSR2/0_ACSR  
New Line.LN6259992-1         bus1=M1089148.1          bus2=L2766721.1          length=0.048405189 units=km Linecode=1PH-4_ACSRxx1/0_TPX               
New Line.LN5841919-1         bus1=M1026745.2          bus2=L3029183.2          length=0.091016527 units=km Linecode=1PH-x2_ACSRx2_ACSR                
New Line.LN6380811-1         bus1=L2710512.2          bus2=M1047828.2          length=0.14521686  units=km Linecode=1PH-x4_ACSRx4_ACSR                
New Line.LN5683832-1         bus1=M1047342.1          bus2=L3197645.1          length=0.073698058 units=km Linecode=1PH-2_ACSRxx2_ACSR                
New Line.LN6077778-1         bus1=M1069192.1          bus2=L3235253.1          length=0.081541574 units=km Linecode=1PH-2_ACSRxx2_ACSR                
New Line.LN5561442-2         bus1=L3214071            bus2=M1125952            length=0.053927476 units=km Linecode=3PH_H-397_ACSR397_ACSR397_ACSR2/0_ACSR  
New Line.LN6259983-1         bus1=M1027101.2          bus2=L2860480.2          length=0.16390608  units=km Linecode=1PH-x2_ACSRx2_ACSR                
New Line.LN5865244-1         bus1=L2710517.1          bus2=M1026646.1          length=0.048809326 units=km Linecode=1PH-4_ACSRxx4_ACSR                
New Line.LN6350555-1         bus1=M1069662.2          bus2=L2935547.2          length=0.061176171 units=km Linecode=1PH-x2_ACSRx2_ACSR                
New Line.LN5714039-1         bus1=M1026931.1          bus2=L3216336.1          length=0.049186375 units=km Linecode=1PH-4_ACSRxx4_ACSR                
New Line.LN5889821-1         bus1=L3142049            bus2=M1108493            length=0.084670171 units=km Linecode=3PH_H-397_ACSR397_ACSR397_ACSR2/0_ACSR  
New Line.LN5804791-1         bus1=M1069169            bus2=L3010556            length=0.073355839 units=km Linecode=3PH_H-4_ACSR4_ACSR4_ACSR4_WPAL          
New Line.LN5653486-1         bus1=L2991933.3          bus2=L3122837.3          length=0.083273252 units=km Linecode=1PH-xx4_ACSR4_ACSR                
New Line.LN5926286-1         bus1=L3216336.1          bus2=L2691936.1          length=0.066949476 units=km Linecode=1PH-4_ACSRxx4_ACSR                
New Line.LN6318859-1         bus1=L2897772.1          bus2=L3101814.1          length=0.056445275 units=km Linecode=1PH-4_ACSRxx4_ACSR                
New Line.LN5926316-1         bus1=L2766732.2          bus2=M1026485.2          length=0.013733074 units=km Linecode=1PH-x2_ACSRx2_ACSR                
New Line.LN5591703-1         bus1=L2804269.2          bus2=L2989564.2          length=0.062072526 units=km Linecode=1PH-x4_ACSRx4_ACSR                
New Line.LN5531333-1         bus1=M1126016.1          bus2=L3120534.1          length=0.035538915 units=km Linecode=1PH-4_ACSRxx4_ACSR                
New Line.LN6047581-1         bus1=M1026330.2          bus2=L2766726.2          length=0.030088055 units=km Linecode=1PH-x4_WPALx4_WPAL                
New Line.LN6349077-1         bus1=P901912.2           bus2=L3195365.2          length=0.037424079 units=km Linecode=1PH-x2_ACSRx2_ACSR                
New Line.LN6350574-1         bus1=M1108381            bus2=L3254237            length=0.075954944 units=km Linecode=3PH_H-4_ACSR2_ACSR2_ACSR4_ACSR          
New Line.LN6320343-1         bus1=L2804262.1          bus2=L2841639.1          length=0.074677313 units=km Linecode=1PH-4_ACSRxx4_ACSR                
New Line.LN81048100-5        bus1=N1230123.2          bus2=L2708744.2          length=0.055803273 units=km linecode=1P_1/0_AXNJ_DB                          
New Line.LN6348946-1         bus1=M1069519.2          bus2=P901927.2           length=0.008238711 units=km Linecode=1PH-x2_ACSRx2_ACSR                
New Line.LN5744351-1         bus1=L2897790.3          bus2=L2935566.3          length=0.070433661 units=km Linecode=1PH-xx2_ACSR2_ACSR                
New Line.LN5472342-1         bus1=M1026931.1          bus2=L3216337.1          length=0.056331403 units=km Linecode=1PH-2_ACSRxx2_ACSR                
New Line.LN5621849-1         bus1=P901931.3           bus2=M1069548.3          length=0.004854897 units=km Linecode=1PH-xx2_ACSR2_ACSR                
New Line.LN6379375-1         bus1=M1010013.1          bus2=L3120503.1          length=0.0548288   units=km Linecode=1PH-2_ACSRxx2_ACSR                
New Line.LN6028890-1         bus1=M1089145            bus2=L3215385            length=0.035965867 units=km Linecode=3PH_H-2_ACSR2_ACSR2_ACSR2_ACSR          
New Line.LN6380822-1         bus1=M1026854            bus2=M1026852            length=0.13122769  units=km Linecode=3PH_H-2/0_ACSR2/0_ACSR2/0_ACSR2_ACSR    
New Line.LN5835131-1         bus1=L2935549            bus2=M1069420            length=0.096022455 units=km Linecode=3PH_H-2/0_ACSR2/0_ACSR2/0_ACSR2_ACSR    
New Line.LN5803262-7         bus1=L3157708.3          bus2=N1137991.3          length=0.014131659 units=km Linecode=1PH-xx4_ACSR4_ACSR                
New Line.LN81048089-1        bus1=M1108413.1          bus2=M1108460.1          length=0.14609518  units=km linecode=1P_1/0_AXNJ_DB                          
New Line.LN6201699-1         bus1=P827532.1           bus2=M1047326.1          length=0.007292708 units=km Linecode=1PH-2_ACSRxx2_ACSR                
New Line.LN5746548-1         bus1=E182732             bus2=M1026760            length=0.009180368 units=km Linecode=3PH_H-4_ACSR4_ACSR4_ACSR4_ACSR          
New Line.LN5835174-1         bus1=L3048205.3          bus2=M1108361.3          length=0.19593419  units=km Linecode=1PH-xx4_ACSR4_WPAL                
New Line.LN6505947-4         bus1=M3036169.1          bus2=L2673317.1          length=0.002598078 units=km Linecode=1PH-4_ACSRxx4_WPAL                
New Line.LN5683833-1         bus1=L3178981.2          bus2=M1047368.2          length=0.21679755  units=km Linecode=1PH-x4_ACSRx4_ACSR                
New Line.LN5561439-3         bus1=M1069519            bus2=N1136354            length=0.15125949  units=km Linecode=3PH_H-397_ACSR397_ACSR397_ACSR2/0_ACSR  
New Line.LN6109190-1         bus1=L2879794.1          bus2=M1142811.1          length=0.033755992 units=km Linecode=1PH-4_ACSRxx4_ACSR                
New Line.LN6258435-2         bus1=M1047702.1          bus2=N1137002.1          length=0.018939349 units=km Linecode=1PH-2_ACSRxx2_ACSR                
New Line.LN5804819-1         bus1=M1069565.2          bus2=L2785536.2          length=0.1850108   units=km Linecode=1PH-x4_ACSRx4_ACSR                
New Line.LN5593215-1         bus1=L3104114.2          bus2=M1009824.2          length=0.055545084 units=km Linecode=1PH-x4_WPALx4_WPAL                
New Line.LN5833717-1         bus1=L2745848            bus2=L2673308            length=0.057554467 units=km Linecode=3PH_H-2/0_ACSR2/0_ACSR2/0_ACSR2_ACSR    
New Line.LN6199557-1         bus1=L2673308            bus2=L2991939            length=0.11260967  units=km Linecode=3PH_H-2/0_ACSR2/0_ACSR2/0_ACSR2_ACSR    
New Line.LN5744332-1         bus1=L2916606.3          bus2=L2822864.3          length=0.061698468 units=km Linecode=1PH-xx4_ACSR4_ACSR                
New Line.LN5558790-1         bus1=M1142851            bus2=196-31070           length=0.01385607  units=km Linecode=3PH_H-397_ACSR397_ACSR397_ACSR2/0_ACSR  
New Line.LN6078692-1         bus1=M1209822.3          bus2=M1209823.3          length=0.056983029 units=km Linecode=1PH-xx4_ACSR4_ACSR                
New Line.LN5956482-1         bus1=M1069550.2          bus2=M1069551.2          length=0.004148354 units=km Linecode=1PH-x4_WPALx4_WPAL                
New Line.LN5593225-1         bus1=L2860483.2          bus2=L3141397.2          length=0.076050673 units=km Linecode=1PH-x2_ACSRx2_ACSR                
New Line.LN6900591-26        bus1=L3649299.1          bus2=M3772794.1          length=0.003878988 units=km Linecode=1PH-2_ACSRxx2_ACSR                
New Line.LN5952393-1         bus1=P895106.2           bus2=L3048887.2          length=0.040161258 units=km Linecode=1PH-x4_ACSRx4_ACSR                
New Line.LN6350531-1         bus1=M1047824.2          bus2=M1047834.2          length=0.41574814  units=km Linecode=1PH-x4_ACSRx4_ACSR                
New Line.LN5965099-10        bus1=M1069350            bus2=N1144668            length=0.026748079 units=km Linecode=3PH_H-2/0_ACSR2/0_ACSR2/0_ACSR2_ACSR    
New Line.LN6047568-1         bus1=L2879072.2          bus2=M1047441.2          length=0.2303486   units=km Linecode=1PH-x4_WPALx4_ACSR                
New Line.LN5926292-1         bus1=M1108274.2          bus2=M1108269.2          length=0.061288054 units=km Linecode=1PH-x2_ACSRx2_ACSR                
New Line.LN6380806-1         bus1=L3235244.1          bus2=M1069398.1          length=0.062895843 units=km Linecode=1PH-4_ACSRxx4_ACSR                
New Line.LN6341781-3         bus1=N1147862.1          bus2=L2685805.1          length=0.089366154 units=km Linecode=1PH-2_ACSRxx2_ACSR                
New Line.LN8979367-1         bus1=M1069247.1          bus2=M1069248.1          length=0.12279504  units=km linecode=1P_1/0_AXNJ_DB                          
New Line.LN6018340-1         bus1=L2786273.2          bus2=M1108278.2          length=0.10799408  units=km Linecode=1PH-x4_ACSRx4_ACSR                
New Line.LN6380847-1         bus1=L3254238            bus2=M1047303            length=0.099313729 units=km Linecode=3PH_H-4_ACSR4_ACSR4_ACSR4_ACSR          
New Line.LN8961797-1         bus1=M1047633.3          bus2=L2897554.3          length=0.17983472  units=km linecode=1P_1/0_AXNJ_DB                          
New Line.LN6077797-1         bus1=M1069627.2          bus2=L2897791.2          length=0.13855367  units=km Linecode=1PH-x4_ACSRx4_ACSR                
New Line.LN6077773-1         bus1=M1089097.2          bus2=M1108270.2          length=0.083122982 units=km Linecode=1PH-x4_ACSRx4_WPAL                
New Line.LN5837496-4         bus1=N1142101.1          bus2=L2936214.1          length=0.036947217 units=km Linecode=1PH-2_ACSRxx2_ACSR                
New Line.LN5623392-1         bus1=L3066810.3          bus2=L2897769.3          length=0.12963818  units=km Linecode=1PH-xx4_ACSR4_ACSR                
New Line.LN5624380-1         bus1=M1209758.2          bus2=M1209753.2          length=0.12109104  units=km Linecode=1PH-x2_ACSRx2_ACSR                
New Line.LN6422809-2         bus1=M1047528            bus2=L2858166            length=0.004833257 units=km Linecode=3PH_H-2/0_ACSR2/0_ACSR2/0_ACSR2_ACSR    
New Line.LN5799561-1         bus1=M1142843            bus2=L3081380            length=0.110589    units=km Linecode=3PH_H-397_ACSR397_ACSR397_ACSR2/0_ACSR  
New Line.LN6229818-1         bus1=L2804272.2          bus2=L2841641.2          length=0.079462886 units=km Linecode=1PH-x2_ACSRx2_ACSR                
New Line.LN5593230-1         bus1=M1069393.2          bus2=M1069408.2          length=0.069802024 units=km Linecode=1PH-x4_ACSRx4_ACSR                
New Line.LN5563901-3         bus1=N1142104            bus2=M1108500            length=0.045482405 units=km Linecode=3PH_H-397_ACSR397_ACSR397_ACSR2/0_ACSR  
New Line.LN6320339-1         bus1=L3216348.1          bus2=L2841627.1          length=0.18831853  units=km Linecode=1PH-4_WPALxx4_WPAL                
New Line.LN5986927-1         bus1=M1026925.1          bus2=L2916599.1          length=0.015576555 units=km Linecode=1PH-4_ACSRxx4_ACSR                
New Line.LN6047567-1         bus1=M1047447.2          bus2=L2954349.2          length=0.053454722 units=km Linecode=1PH-x4_WPALx4_WPAL                
New Line.LN5714047-1         bus1=L3235246.2          bus2=L2710512.2          length=0.077202257 units=km Linecode=1PH-x4_ACSRx4_ACSR                
New Line.LN5563934-1         bus1=M1125911.2          bus2=L2711224.2          length=0.10543947  units=km Linecode=1PH-x4_ACSRx4_ACSR                
New Line.LN6169249-3         bus1=N1147863.3          bus2=L3122817.3          length=0.004395476 units=km Linecode=1PH-xx4_ACSR4_ACSR                
New Line.LN6230800-1         bus1=M1186061.2          bus2=L2861223.2          length=0.036470829 units=km Linecode=1PH-x4_ACSRx4_ACSR                
New Line.LN5985339-2         bus1=M1069130.1          bus2=L3085396.1          length=0.078786151 units=km Linecode=1PH-4_ACSRxx4_ACSR                
New Line.LN5898059-3         bus1=E182730.1           bus2=N1142109.1          length=0.024024243 units=km Linecode=1PH-4_ACSRxx4_ACSR                
New Line.LN5956457-2         bus1=M1069417            bus2=N1138597            length=0.031773723 units=km Linecode=3PH_H-2/0_ACSR2/0_ACSR2/0_ACSR2_ACSR    
New Line.LN5865229-1         bus1=M1026987.2          bus2=M1026990.2          length=0.057053995 units=km Linecode=1PH-x4_ACSRx4_ACSR                
New Line.LN6018331-1         bus1=M1142832            bus2=L3160865            length=0.067079697 units=km Linecode=3PH_H-397_ACSR397_ACSR397_ACSR2/0_ACSR  
New Line.LN6199535-1         bus1=L2673323.3          bus2=M1009809.3          length=0.071541145 units=km Linecode=1PH-xx4_ACSR4_WPAL                
New Line.LN5502538-1         bus1=L2822869            bus2=M1026808            length=0.094783217 units=km Linecode=3PH_H-4_ACSR4_ACSR4_ACSR4_ACSR          
New Line.LN5742816-2         bus1=M1047825.2          bus2=M1069731.2          length=0.08606311  units=km Linecode=1PH-x4_ACSRx4_ACSR                


New Line.LN6229803-3         bus1=N1140520.3          bus2=L2729410.3          length=0.022726989 units=km Linecode=1PH-xx2_ACSR2_ACSR                
New Line.LN5986930-1         bus1=M1026646.1          bus2=L3178978.1          length=0.1966651   units=km Linecode=1PH-4_ACSRxx4_ACSR                
New Line.LN6350532-1         bus1=M1069384.1          bus2=L3066805.1          length=0.04013771  units=km Linecode=1PH-4_WPALxx4_WPAL                
New Line.LN5588016-3         bus1=L2710546.2          bus2=M4362181.2          length=0.025897479 units=km Linecode=1PH-x2_ACSRx2_ACSR                
New Line.LN5623409-1         bus1=M1047319.3          bus2=M1047318.3          length=0.074070287 units=km Linecode=1PH-xx4_ACSR4_ACSR                
New Line.LN6350560-1         bus1=L3216358.1          bus2=M1026826.1          length=0.04577771  units=km Linecode=1PH-4_ACSRxx2_ACSR                
New Line.LN5472347-1         bus1=M1108274.2          bus2=M1108276.2          length=0.052849276 units=km Linecode=1PH-x4_ACSRx4_ACSR                
New Line.LN6290199-1         bus1=M1089198            bus2=M1089201            length=0.17704795  units=km Linecode=3PH_H-397_ACSR397_ACSR397_ACSR2/0_ACSR  
New Line.LN6409775-3         bus1=M1047763.1          bus2=N1136027.1          length=0.01814072  units=km Linecode=1PH-4_ACSRxx4_ACSR                
New Line.LN5591811-1         bus1=L3101827.3          bus2=M1108540.3          length=0.15052207  units=km Linecode=1PH-xx4_ACSR4_ACSR                
New Line.LN6229808-1         bus1=M1026335.1          bus2=L2804259.1          length=0.069885457 units=km Linecode=1PH-2_ACSRxx2_ACSR                
New Line.LN5651985-3         bus1=N1136357.3          bus2=L2897790.3          length=0.039983603 units=km Linecode=1PH-xx2_ACSR2_ACSR                
New Line.LN6047577-1         bus1=M1047513            bus2=M1047507            length=0.069519776 units=km Linecode=3PH_H-4_ACSR4_ACSR4_ACSR4_ACSR          
New Line.LN5528574-2         bus1=M1142863.3          bus2=N1141480.3          length=0.004605174 units=km Linecode=1PH-xx4_ACSR4_ACSR                
New Line.LN5896827-1         bus1=M1125916.2          bus2=L2879767.2          length=0.06935707  units=km Linecode=1PH-x4_ACSRx4_ACSR                
New Line.LN5774451-1         bus1=L3066809.3          bus2=M1069487.3          length=0.06362585  units=km Linecode=1PH-xx4_WPAL4_WPAL                
New Line.LN5504876-1         bus1=M1142818            bus2=P829965             length=0.06747348  units=km Linecode=3PH_H-4_ACSR4_ACSR4_ACSR4_WPAL          
New Line.LN5860423-4         bus1=Q14733              bus2=M1047568            length=0.014963062 units=km Linecode=3PH_H-2/0_ACSR2/0_ACSR2/0_ACSR2_ACSR    
New Line.LN6138613-1         bus1=M1047326.1          bus2=M1047322.1          length=0.038961022 units=km Linecode=1PH-2_ACSRxx2_ACSR                
New Line.LN6077771-1         bus1=M1009824.2          bus2=L2954338.2          length=0.030715032 units=km Linecode=1PH-x4_WPALx1/0_TPX               
New Line.LN6138636-1         bus1=M1047409.1          bus2=L2841648.1          length=0.12755805  units=km Linecode=1PH-4_ACSRxx4_ACSR                
New Line.LN6199512-1         bus1=M1089177.3          bus2=L2729406.3          length=0.13773994  units=km Linecode=1PH-xx4_ACSR4_ACSR                
New Line.LN6047564-1         bus1=M1026951.2          bus2=L2954347.2          length=0.066580846 units=km Linecode=1PH-x2_ACSRx2_ACSR                
New Line.LN6258460-3         bus1=M4122657.3          bus2=L3027124.3          length=0.22078337  units=km Linecode=1PH-xx2_ACSR2_ACSR                
New Line.LN5683810-1         bus1=M1069419            bus2=M1069418            length=0.048491679 units=km Linecode=3PH_H-2/0_ACSR2/0_ACSR2/0_ACSR2_ACSR    
New Line.LN5852082-1         bus1=M1026824.3          bus2=P859694.3           length=0.00674828  units=km Linecode=1PH-xx4_ACSR1/0_ACSR              
New Line.LN6380816-1         bus1=M1047453.2          bus2=L2691948.2          length=0.069602732 units=km Linecode=1PH-x2_ACSRx2_ACSR                
New Line.LN6108138-2         bus1=P860892.3           bus2=N1139543.3          length=0.010731814 units=km Linecode=1PH-xx2_ACSR2_ACSR                
New Line.LN6167732-2         bus1=M1089205.1          bus2=N1134472.1          length=0.014446564 units=km Linecode=1PH-4_ACSRxx4_ACSR                
New Line.LN6229831-1         bus1=L2710542.2          bus2=L2729430.2          length=0.035369712 units=km Linecode=1PH-x4_ACSRx4_ACSR                
New Line.LN6504020-2         bus1=M3032980            bus2=M3032977            length=0.25744439  units=km Linecode=3PH_H-397_ACSR397_ACSR397_ACSR2/0_ACSR  
New Line.LN81354561-2        bus1=M3763618.3          bus2=P1121282.3          length=0.003784151 units=km linecode=1P_1/0_AXNJ_DB                          
New Line.LN5654476-1         bus1=L2917330.1          bus2=L2861222.1          length=0.089533931 units=km Linecode=1PH-4_ACSRxx4_ACSR                
New Line.LN6987572-4         bus1=M1047490.1          bus2=P1164481.1          length=0.036413422 units=km Linecode=1PH-2_ACSRxx2_ACSR                
New Line.LN6260025-1         bus1=M1069356.3          bus2=M1069363.3          length=0.066843652 units=km Linecode=1PH-xx2_ACSR2_ACSR                
New Line.LN5926291-1         bus1=M1069418            bus2=M1069417            length=0.087770103 units=km Linecode=3PH_H-2/0_ACSR2/0_ACSR2/0_ACSR2_ACSR    
New Line.LN8961800-1         bus1=P828359.3           bus2=L2878848.3          length=0.17750716  units=km linecode=1P_1/0_AXNJ_DB                          
New Line.LN6437757-1         bus1=M1047486.1          bus2=L3177665.1          length=0.018287602 units=km Linecode=1PH-2_ACSRxx4_ACSR                
New Line.LN5594245-1         bus1=M1108278.2          bus2=L2805036.2          length=0.066328657 units=km Linecode=1PH-x4_ACSRx4_ACSR                
New Line.LN5957492-1         bus1=L2692654.1          bus2=M1125929.1          length=0.002372008 units=km Linecode=1PH-2_ACSRxx4_WPAL                
New Line.LN5956464-1         bus1=M1047669            bus2=M1047672            length=0.003394598 units=km Linecode=3PH_H-4_WPAL4_WPAL4_WPAL4_WPAL          
New Line.LN6171683-1         bus1=M1125919.1          bus2=P829961.1           length=0.010447145 units=km Linecode=1PH-2_ACSRxx4_WPAL                
New Line.LN5625715-1         bus1=M1142819.2          bus2=P829960.2           length=0.002509582 units=km Linecode=1PH-x4_ACSRx4_ACSR                
New Line.LN5746706-2         bus1=P829979.2           bus2=M3036172.2          length=0.032567448 units=km Linecode=1PH-x2_ACSRx2_ACSR                
New Line.LN5653491-1         bus1=M1026883.3          bus2=M1026898.3          length=0.06162683  units=km Linecode=1PH-xx4_ACSR4_ACSR                
New Line.LN5472361-1         bus1=M1089143.1          bus2=L3141400.1          length=0.095157861 units=km Linecode=1PH-4_ACSRxx4_ACSR                
New Line.LN5683856-2         bus1=M1069469.1          bus2=N1139263.1          length=0.008271348 units=km Linecode=1PH-4_ACSRxx4_ACSR                
New Line.LN5565091-1         bus1=M1069481.3          bus2=P827507.3           length=0.009805515 units=km Linecode=1PH-xx2_ACSR2_ACSR                
New Line.LN5653466-1         bus1=M1026377.1          bus2=L3048210.1          length=0.12725195  units=km Linecode=1PH-4_WPALxx4_ACSR                
New Line.LN5534966-2         bus1=E182722.1           bus2=N1138596.1          length=0.013356534 units=km Linecode=1PH-4_ACSRxx4_ACSR                
New Line.LN6409762-1         bus1=M1026331.3          bus2=L3214055.3          length=0.06095942  units=km Linecode=1PH-xx4_ACSR4_ACSR                
New Line.LN6109158-1         bus1=M1108295            bus2=L2936279            length=0.083738516 units=km Linecode=3PH_H-4_ACSR4_ACSR4_ACSR4_ACSR          
New Line.LN5835145-1         bus1=M1026704.2          bus2=L2841634.2          length=0.16394102  units=km Linecode=1PH-x2_ACSRx2_ACSR                
New Line.LN5774493-1         bus1=M1047386.2          bus2=M1047379.2          length=0.095081577 units=km Linecode=1PH-x4_WPALx4_WPAL                
New Line.LN5835143-1         bus1=M1089118            bus2=M1089115            length=0.16170829  units=km Linecode=3PH_H-4_ACSR4_ACSR4_ACSR4_WPAL          
New Line.LN5926315-1         bus1=M1026486.2          bus2=M1026488.2          length=0.010803168 units=km Linecode=1PH-x2_ACSRx2_ACSR                
New Line.LN5895786-1         bus1=M1026364.1          bus2=L3010570.1          length=0.059756623 units=km Linecode=1PH-2_ACSRxx2_ACSR                
New Line.LN81048102-5        bus1=P904451.1           bus2=221-282819.1        length=0.005501021 units=km linecode=1P_1/0_AXNJ_DB                          
New Line.LN5861084-1         bus1=M1125968.3          bus2=P895107.3           length=0.008451514 units=km Linecode=1PH-xx4_ACSR4_ACSR                
New Line.LN5774455-2         bus1=M1047672.1          bus2=N1136999.1          length=0.016026796 units=km Linecode=1PH-2_ACSRxx2_ACSR                
New Line.LN6108132-1         bus1=M1069412.2          bus2=L2879061.2          length=0.082306111 units=km Linecode=1PH-x4_ACSRx4_ACSR                
New Line.LN6077775-1         bus1=M1026947.2          bus2=M1026946.2          length=0.13864752  units=km Linecode=1PH-x4_ACSRx4_ACSR                
New Line.LN5591718-1         bus1=M1142880.3          bus2=L2891575.3          length=0.098918918 units=km Linecode=1PH-xx4_ACSR4_ACSR                
New Line.LN5653461-1         bus1=M1026848.1          bus2=M1026847.1          length=0.067929357 units=km Linecode=1PH-2_ACSRxx2_ACSR                
New Line.LN6290229-1         bus1=L2897793.1          bus2=M1069521.1          length=0.025586266 units=km Linecode=1PH-4_ACSRxx4_WPAL                
New Line.LN5774463-1         bus1=M1069175.3          bus2=L3197637.3          length=0.076510505 units=km Linecode=1PH-xx4_WPAL4_WPAL                
New Line.LN6380814-1         bus1=M1047441.2          bus2=L3197635.2          length=0.060782362 units=km Linecode=1PH-x4_ACSRx4_ACSR                
New Line.LN5895776-1         bus1=L2804257.2          bus2=L2860485.2          length=0.05942455  units=km Linecode=1PH-x2_ACSRx2_ACSR                
New Line.LN6200439-1         bus1=L3235945.3          bus2=L2842330.3          length=0.031983754 units=km Linecode=1PH-xx4_ACSR4_ACSR                
New Line.LN6138601-1         bus1=L2804254.1          bus2=M1047752.1          length=0.013302738 units=km Linecode=1PH-4_ACSRxx4_ACSR                
New Line.LN5927421-1         bus1=M1166370.3          bus2=M1166364.3          length=0.04751172  units=km Linecode=1PH-xx2_ACSR2_ACSR                
New Line.LN5532748-5         bus1=M1047592            bus2=M3763619            length=0.040091287 units=km Linecode=3PH_H-2/0_ACSR2/0_ACSR2/0_ACSR2_ACSR    
New Line.LN6506318-4         bus1=M3037540.3          bus2=L2710509.3          length=0.003342785 units=km Linecode=1PH-xx2_ACSR2_ACSR                
New Line.LN6288856-3         bus1=L2763072.2          bus2=M4118754.2          length=0.07286948  units=km Linecode=1PH-x4_ACSRx4_ACSR                
New Line.LN5653452-1         bus1=M1089196            bus2=M1089198            length=0.10686057  units=km Linecode=3PH_H-397_ACSR397_ACSR397_ACSR2/0_ACSR  
New Line.LN6290205-1         bus1=M1047484            bus2=L3010560            length=0.059089526 units=km Linecode=3PH_H-2/0_ACSR2/0_ACSR2/0_ACSR2_ACSR    
New Line.LN6350547-1         bus1=L3254219.3          bus2=L3254220.3          length=0.064169262 units=km Linecode=1PH-xx2_ACSR2_ACSR                
New Line.LN6229800-1         bus1=M1026648.1          bus2=M1026647.1          length=0.052222014 units=km Linecode=1PH-4_ACSRxx4_ACSR                
New Line.LN6138609-1         bus1=M1089112.3          bus2=L2691951.3          length=0.06504075  units=km Linecode=1PH-xx4_WPAL4_WPAL                
New Line.WD701_48332_sw      bus1=228-1048090-1_INT.2 bus2=193-51796.2         switch=y           R1=1     1   1        1            Length=0.001 phases=1 enabled=False 
New Line.LN81048090-1        bus1=M1108433.2          bus2=228-1048090-1_INT.2 length=0.13353714  units=km linecode=1P_1/0_AXNJ_DB                          
New Line.LN5683828-1         bus1=M1026327.2          bus2=L2841636.2          length=0.10472867  units=km Linecode=1PH-x4_ACSRx4_ACSR                
New Line.LN8979256-1         bus1=M1089183            bus2=L2990826            length=0.052078294 units=km linecode=3P_1/0_AXNJ_DB                          
New Line.LN6506317-2         bus1=L2911069.2          bus2=L2948732.2          length=0.22112721  units=km Linecode=1PH-x2_ACSRx2_ACSR                
New Line.LN6078744-1         bus1=M1108260.2          bus2=M1108259.2          length=0.03565775  units=km Linecode=1PH-x4_WPALx4_WPAL                
New Line.LN81018875-1        bus1=M1069312.3          bus2=P873800.3           length=0.007335412 units=km linecode=1P_1/0_AXNJ_DB                          
New Line.LN6078691-1         bus1=P901951.3           bus2=M1186078.3          length=0.17544744  units=km Linecode=1PH-xx4_WPAL4_WPAL                
New Line.LN6258439-1         bus1=L2876797            bus2=R18241              length=0.049376638 units=km Linecode=3PH_H-4_ACSR4_ACSR4_ACSR4_WPAL          
New Line.LN6108164-1         bus1=L3254227.2          bus2=M1069550.2          length=0.047453284 units=km Linecode=1PH-x4_WPALx4_WPAL                
New Line.LN5927379-2         bus1=M3037455.3          bus2=L3217052.3          length=0.071310138 units=km Linecode=1PH-xx4_ACSR4_ACSR                
New Line.LN6110365-1         bus1=P827500.1           bus2=L2822861.1          length=0.098197127 units=km Linecode=1PH-2_ACSRxx2_ACSR                
New Line.LN5773040-1         bus1=M1047724            bus2=M1047722            length=0.042372467 units=km Linecode=3PH_H-4_ACSR4_ACSR4_ACSR4_WPAL          
New Line.V7173_48332_sw      bus1=D5534969-2_INT      bus2=E182729             switch=y           R1=1     1   1        1            Length=0.001   
New Line.LN5534969-2         bus1=N1134477            bus2=D5534969-2_INT      length=0.022611044 units=km Linecode=3PH_H-397_ACSR397_ACSR397_ACSR2/0_ACSR  
New Line.LN6015891-1         bus1=M1166355.1          bus2=L2858200.1          length=0.11201214  units=km Linecode=1PH-4_ACSRxx4_ACSR                
New Line.LN5683816-1         bus1=M1047699            bus2=L2935554            length=0.080211844 units=km Linecode=3PH_H-4_WPAL4_WPAL4_WPAL4_WPAL          
New Line.LN6199561-1         bus1=M1047292.3          bus2=L2766750.3          length=0.058227302 units=km Linecode=1PH-xx4_ACSR4_ACSR                
New Line.LN6900591-12        bus1=L3649300.1          bus2=L3649301.1          length=0.061174579 units=km Linecode=1PH-2_ACSRxx2_ACSR                
New Line.LN6411363-1         bus1=M1047733.1          bus2=L3066804.1          length=0.10375985  units=km Linecode=1PH-2_ACSRxx2_ACSR                
New Line.LN6108130-6         bus1=M3327098.2          bus2=L2691943.2          length=0.19980404  units=km Linecode=1PH-x4_ACSRx4_ACSR                
New Line.LN5837516-1         bus1=P829986.1           bus2=M1125904.1          length=0.021460849 units=km Linecode=1PH-2_ACSRxx2_ACSR                
New Line.LN6017301-4         bus1=M3036169.1          bus2=N1139550.1          length=0.023388828 units=km Linecode=1PH-4_ACSRxx4_ACSR                
New Line.LN5981121-1         bus1=M1026307.2          bus2=L3085388.2          length=0.12519194  units=km Linecode=1PH-x4_ACSRx4_ACSR                
New Line.LN81048107-4        bus1=L3233413.2          bus2=M1108464.2          length=0.04632063  units=km linecode=1P_1/0_AXNJ_DB                          
New Line.LN5472374-1         bus1=L3122827.1          bus2=L2954355.1          length=0.05850549  units=km Linecode=1PH-4_ACSRxx4_ACSR                
New Line.LN5746550-2         bus1=P827576.2           bus2=N1139256.2          length=0.009617215 units=km Linecode=1PH-x2_ACSRx2_ACSR                
New Line.LN5561437-1         bus1=L2952003            bus2=M1108381            length=0.10724762  units=km Linecode=3PH_H-4_WPAL4_WPAL4_WPAL4_ACSR          
New Line.LN6439986-3         bus1=N1136359.3          bus2=L3008237.3          length=0.028799533 units=km Linecode=1PH-xx4_ACSR4_ACSR                
New Line.LN5744324-1         bus1=M1089102.3          bus2=M1089096.3          length=0.16953267  units=km Linecode=1PH-xx4_ACSR4_ACSR                
New Line.LN6376708-1         bus1=P895102.2           bus2=M1125978.2          length=0.009923416 units=km Linecode=1PH-x4_ACSRx4_ACSR                
New Line.LN5895816-2         bus1=M1026706            bus2=N1140825            length=0.01512159  units=km Linecode=3PH_H-4_ACSR4_ACSR4_ACSR4_ACSR          
New Line.LN5593235-1         bus1=L3141399.3          bus2=M1069210.3          length=0.076873148 units=km Linecode=1PH-xx4_ACSR4_WPAL                
New Line.LN81354563-2        bus1=M3763624.3          bus2=P1121283.3          length=0.009964107 units=km linecode=1P_1/0_AXNJ_DB                          
New Line.LN5866260-1         bus1=M1142839.3          bus2=L3067507.3          length=0.042051449 units=km Linecode=1PH-xx2/0_ACSR1/0_TPX             
New Line.LN6018243-1         bus1=M1108540.3          bus2=L3235945.3          length=0.085523799 units=km Linecode=1PH-xx4_ACSR4_ACSR                
New Line.LN5928743-3         bus1=N1141478.2          bus2=M1142826.2          length=0.12458073  units=km Linecode=1PH-x4_ACSRx4_ACSR                
New Line.LN5957501-1         bus1=M1108334.3          bus2=L2692664.3          length=0.039182384 units=km Linecode=1PH-xx4_ACSR4_ACSR                
New Line.LN6379357-1         bus1=L2823544.1          bus2=M1126016.1          length=0.030918737 units=km Linecode=1PH-4_ACSRxx4_ACSR                
New Line.LN6291252-2         bus1=226-23751           bus2=L2955081            length=0.041939554 units=km Linecode=3PH_H-397_ACSR397_ACSR397_ACSR2/0_ACSR  
New Line.LN6440002-3         bus1=P827536.1           bus2=N1137999.1          length=0.012536863 units=km Linecode=1PH-4_ACSRxx2_ACSR                
New Line.LN6076346-1         bus1=L3027157            bus2=L2973155            length=0.11046365  units=km Linecode=3PH_H-4_ACSR4_ACSR4_ACSR4_ACSR          
New Line.LN8978752-1         bus1=M1186052            bus2=198-5320            length=0.005839099 units=km linecode=3P_1/0_AXNJ_DB                          
New Line.LN5621834-1         bus1=L3216346.1          bus2=L2858163.1          length=0.13136078  units=km Linecode=1PH-4_WPALxx4_WPAL                
New Line.LN6108123-1         bus1=M1047813.2          bus2=L2973149.2          length=0.067136781 units=km Linecode=1PH-x4_ACSRx4_ACSR                
New Line.LN6505952-4         bus1=M3036172.2          bus2=L3086079.2          length=0.002703266 units=km Linecode=1PH-x4_ACSRx4_ACSR                
New Line.LN5835159-1         bus1=M1069574.2          bus2=L2710530.2          length=0.050243999 units=km Linecode=1PH-x2_ACSRx2_ACSR                
New Line.LN5698090-2         bus1=M1069285.1.3        bus2=M4113348.1.3        length=0.001719512 units=km Linecode=2PH_H-2_ACSRx2_ACSR2_ACSR           phases=2 enabled=True 
New Line.LN5714050-1         bus1=L2879074.1          bus2=L3122820.1          length=0.074057003 units=km Linecode=1PH-2_ACSRxx2_ACSR                
New Line.LN5502529-1         bus1=M1026915.2          bus2=M1026916.2          length=0.003048982 units=km Linecode=1PH-x2_ACSRx2_ACSR                
New Line.LN5594236-1         bus1=E193509             bus2=M1142839            length=0.062408228 units=km Linecode=3PH_H-397_ACSR397_ACSR397_ACSR2/0_ACSR  
New Line.LN5593248-1         bus1=M1047794.2          bus2=M1047796.2          length=0.13265139  units=km Linecode=1PH-x2_ACSRx2_ACSR                
New Line.LN5865272-1         bus1=M1047303            bus2=L3027116            length=0.072205824 units=km Linecode=3PH_H-4_ACSR4_ACSR4_ACSR4_ACSR          
New Line.LN5924696-3         bus1=N1137001.1          bus2=L2929261.1          length=0.049633591 units=km Linecode=1PH-2_ACSRxx2_ACSR                
New Line.LN5589096-1         bus1=M1166375.1          bus2=P895080.1           length=0.009761558 units=km Linecode=1PH-2_ACSRxx2_ACSR                
New Line.LN6017295-1         bus1=L2973156.2          bus2=M1069393.2          length=0.11632177  units=km Linecode=1PH-x4_ACSRx4_ACSR                
New Line.LN5970852-1         bus1=M1069311.3          bus2=M1069312.3          length=0.026470907 units=km Linecode=1PH-xx2_ACSR2_ACSR                
New Line.LN5683820-1         bus1=M1069208.3          bus2=L2691945.3          length=0.023432322 units=km Linecode=1PH-xx4_ACSR4_ACSR                
New Line.LN6286966-3         bus1=M1026700.2          bus2=N1140820.2          length=0.02212507  units=km Linecode=1PH-x4_ACSRx4_ACSR                
New Line.LN6167715-1         bus1=M1026468.2          bus2=P901909.2           length=0.009637238 units=km Linecode=1PH-x2_ACSRx2_ACSR                
New Line.LN6108140-2         bus1=M1026662.1          bus2=N1141473.1          length=0.013927592 units=km Linecode=1PH-4_ACSRxx4_ACSR                
New Line.LN6228279-1         bus1=M1026941.1          bus2=M1026942.1          length=0.021508714 units=km Linecode=1PH-4_ACSRxx1/0_TPX               
New Line.LN5803264-2         bus1=M1047722.1          bus2=N1137985.1          length=0.009628465 units=km Linecode=1PH-4_ACSRxx4_ACSR                
New Line.LN6132680-1         bus1=M1047713            bus2=M1047720            length=0.11019667  units=km Linecode=3PH_H-4_ACSR4_ACSR4_ACSR4_ACSR          
New Line.LN5531195-1         bus1=M1108298            bus2=196-36167           length=0.039267282 units=km Linecode=3PH_H-397_ACSR397_ACSR397_ACSR2/0_ACSR  
New Line.LN5985361-1         bus1=E183472             bus2=L2989566            length=0.15613929  units=km Linecode=3PH_H-4_ACSR4_ACSR4_ACSR4_ACSR          
New Line.LN6102293-1         bus1=M1010007.1          bus2=M1010004.1          length=0.15986564  units=km Linecode=1PH-2_ACSRxx2_ACSR                
New Line.LN8989758-1         bus1=M1108381            bus2=P862322             length=0.007394722 units=km linecode=3P_1/0_AXNJ_DB                          
New Line.LN6229790-1         bus1=M1089188.3          bus2=M1089189.3          length=0.06631841  units=km Linecode=1PH-xx4_WPAL4_WPAL                
New Line.LN5956469-1         bus1=L2972704.3          bus2=L3263051.3          length=0.05319975  units=km Linecode=1PH-xx2_ACSR2_ACSR                
New Line.LN5803270-3         bus1=N1139544.3          bus2=L2897776.3          length=0.026602521 units=km Linecode=1PH-xx4_WPAL4_WPAL                
New Line.LN81048102-6        bus1=221-282819.1        bus2=N1230122.1          length=0.005611066 units=km linecode=1P_1/0_AXNJ_DB                          
New Line.LN6440070-1         bus1=L2748132.1          bus2=L2689726.1          length=0.25628309  units=km Linecode=1PH-4_ACSRxx4_ACSR                
New Line.LN6048626-1         bus1=M1142868            bus2=M1142869            length=0.053961415 units=km Linecode=3PH_H-397_ACSR397_ACSR397_ACSR2/0_ACSR  
New Line.LN6076248-1         bus1=M1108328.3          bus2=L2767414.3          length=0.03644873  units=km Linecode=1PH-xx2_ACSR2_ACSR                
New Line.LN6137083-1         bus1=M1027027.3          bus2=L3270853.3          length=0.043117748 units=km Linecode=1PH-xx2_ACSR2_ACSR                
New Line.LN6286261-1         bus1=M1125978.2          bus2=M1125982.2          length=0.077629485 units=km Linecode=1PH-x4_ACSRx4_ACSR                
New Line.LN5653477-1         bus1=M1069572.2          bus2=L3066826.2          length=0.08548946  units=km Linecode=1PH-x4_ACSRx4_ACSR                
New Line.LN6078810-1         bus1=M1166356.1          bus2=L2730187.1          length=0.050948959 units=km Linecode=1PH-4_ACSRxx4_ACSR                
New Line.LN6199526-1         bus1=L3122825.1          bus2=L2991920.1          length=0.060866144 units=km Linecode=1PH-2_ACSRxx2_ACSR                
New Line.LN6108125-2         bus1=N1134474            bus2=M1069496            length=0.056804141 units=km Linecode=3PH_H-397_ACSR397_ACSR397_ACSR2/0_ACSR  
New Line.LN6108149-1         bus1=L3122826.1          bus2=M1047358.1          length=0.1036739   units=km Linecode=1PH-4_WPALxx4_WPAL                
New Line.LN6230759-1         bus1=L3142078.2          bus2=L2879752.2          length=0.1347393   units=km Linecode=1PH-x4_ACSRx4_ACSR                
New Line.LN8979249-1         bus1=P850072             bus2=221-311609          length=0.00406221  units=km linecode=3P_1/0_AXNJ_DB                          
New Line.LN5865237-1         bus1=M1027023.2          bus2=L3122815.2          length=0.075242082 units=km Linecode=1PH-x4_ACSRx4_ACSR                
New Line.LN5706733-2         bus1=L2724120.3          bus2=M1069149.3          length=0.00510622  units=km Linecode=1PH-xx4_ACSR4_ACSR                
New Line.LN5745348-1         bus1=M1142819            bus2=M1142818            length=0.074984761 units=km Linecode=3PH_H-397_ACSR397_ACSR397_ACSR2/0_ACSR  
New Line.LN5898059-2         bus1=N1142109.1          bus2=L2729429.1          length=0.069986312 units=km Linecode=1PH-4_ACSRxx4_ACSR                
New Line.LN5744367-1         bus1=L3215549.2          bus2=L2897800.2          length=0.14360431  units=km Linecode=1PH-x4_ACSRx4_ACSR                
New Line.LN5773136-1         bus1=L3027156.3          bus2=L2860481.3          length=0.11381058  units=km Linecode=1PH-xx4_ACSR4_ACSR                
New Line.LN5472403-2         bus1=N1140828            bus2=M1026708            length=0.012172307 units=km Linecode=3PH_H-2_ACSR2_ACSR2_ACSR2_ACSR          
New Line.LN5712496-1         bus1=M1126020.1          bus2=M1126023.1          length=0.028731708 units=km Linecode=1PH-2_ACSRxx2_ACSR                
New Line.LN5772710-1         bus1=M1026906.1          bus2=L3120376.1          length=0.10683177  units=km Linecode=1PH-4_ACSRxx4_WPAL                
New Line.LN6139544-1         bus1=M1209824.3          bus2=M1209828.3          length=0.251213    units=km Linecode=1PH-xx2_ACSR2_ACSR                
New Line.LN6015788-2         bus1=L3195315.1          bus2=M1069181.1          length=0.084172665 units=km Linecode=1PH-4_ACSRxx4_ACSR                
New Line.LN5591702-1         bus1=M1069590.2          bus2=M1069595.2          length=0.13532605  units=km Linecode=1PH-x4_ACSRx4_ACSR                
New Line.LN5986923-1         bus1=M1027004.2          bus2=L2897765.2          length=0.14590338  units=km Linecode=1PH-x4_ACSRx4_ACSR                
New Line.LN6301772-2         bus1=M1047314.1          bus2=N1137961.1          length=0.019319939 units=km Linecode=1PH-4_WPALxx4_ACSR                
New Line.LN6001653-2         bus1=L2876814            bus2=M1026834            length=0.079857191 units=km Linecode=3PH_H-4_ACSR4_ACSR4_ACSR4_ACSR          
New Line.LN6017283-1         bus1=M1008743.2          bus2=M1008742.2          length=0.082326351 units=km Linecode=1PH-x4_WPALx4_WPAL                
New Line.LN5686079-1         bus1=P827525             bus2=M1026902            length=0.09909393  units=km Linecode=3PH_H-2/0_ACSR2/0_ACSR2/0_ACSR2_ACSR    
New Line.LN5527264-7         bus1=N1144663            bus2=M1089215            length=0.025465502 units=km Linecode=3PH_H-397_ACSR397_ACSR397_ACSR2/0_ACSR  
New Line.LN5683813-1         bus1=M1069469.1          bus2=M1069467.1          length=0.021347852 units=km Linecode=1PH-2_ACSRxx2_ACSR                
New Line.LN5986935-1         bus1=M1047324            bus2=L2897780            length=0.092596774 units=km Linecode=3PH_H-4_ACSR4_ACSR4_ACSR4_WPAL          
...